Circuit: * C:\Users\Matias\Desktop\FIUBA\Materias\86.10 - Diseño de circuitos electrónicos\TP Final - Flyback\Spice\TP Final.asc

WARNING: Less than two connections to node VCC.  This node is used by R3.
Direct Newton iteration for .op point succeeded.

Date: Sat Jul 10 17:07:22 2021
Total elapsed time: 5.511 seconds.

tnom = 27
temp = 27
method = modified trap
totiter = 300392
traniter = 300378
tranpoints = 89015
accept = 70173
rejected = 18842
matrix size = 22
fillins = 6
solver = Normal
Matrix Compiler1: 1.31 KB object code size  0.5/0.3/[0.2]
Matrix Compiler2: 1.71 KB object code size  0.3/0.5/[0.2]

