Circuit: * C:\Users\Ezequiel\Desktop\Facultad\Circuitos 2\Tp\Ejemplos\Ejemplo TL494 - configuracion push pull.asc

Per .tran options, skipping operating point for transient analysis.

Date: Fri Jul 09 21:02:41 2021
Total elapsed time: 0.837 seconds.

tnom = 27
temp = 27
method = modified trap
totiter = 106919
traniter = 106919
tranpoints = 34196
accept = 24078
rejected = 10118
matrix size = 34
fillins = 2
solver = Normal
Matrix Compiler1: 1.05 KB object code size  0.4/0.2/[0.2]
Matrix Compiler2: 2.05 KB object code size  0.3/0.4/[0.2]

